Version 4
SHEET 1 1028 680
WIRE 512 -320 448 -320
WIRE 560 -320 512 -320
WIRE 560 -304 560 -320
WIRE 448 -256 448 -320
WIRE 448 -256 128 -256
WIRE 464 -256 448 -256
WIRE 112 -160 112 -192
WIRE 144 -96 144 -192
WIRE 544 -96 144 -96
WIRE 208 32 208 16
WIRE 208 32 0 32
WIRE 0 64 0 32
WIRE 112 64 32 64
WIRE 208 64 208 32
WIRE 208 64 192 64
WIRE 544 64 544 -96
WIRE 544 64 208 64
WIRE 576 64 544 64
WIRE 640 64 576 64
WIRE 32 112 32 64
WIRE -80 128 -80 64
WIRE 640 128 640 64
FLAG 640 192 0
FLAG 32 192 0
FLAG -80 208 0
FLAG 16 -224 0
FLAG 560 -224 0
FLAG 512 -320 op
FLAG 240 -224 0
FLAG 544 64 x
FLAG 576 144 0
FLAG 112 -80 0
SYMBOL cap 624 128 R0
SYMATTR InstName C1
SYMATTR Value 10n
SYMBOL res 208 48 R90
WINDOW 0 0 56 VBottom 2
WINDOW 3 32 56 VTop 2
SYMATTR InstName R1
SYMATTR Value 500
SYMBOL voltage 32 96 R0
WINDOW 3 24 72 Left 2
WINDOW 123 24 44 Left 2
WINDOW 39 0 0 Left 0
SYMATTR Value PULSE(0 100 1u 0 0 2u 40u 1)
SYMATTR Value2 AC 1
SYMATTR InstName V1
SYMBOL voltage -80 112 R0
WINDOW 3 24 152 Left 2
WINDOW 123 24 124 Left 2
WINDOW 39 0 0 Left 0
SYMATTR Value PULSE(0 100 10u 0 0 2u 40u 1)
SYMATTR Value2 AC 1
SYMATTR InstName V2
SYMBOL res 16 48 R90
WINDOW 0 0 56 VBottom 2
WINDOW 3 32 56 VTop 2
SYMATTR InstName R2
SYMATTR Value 500
SYMBOL voltage 112 -176 R0
WINDOW 123 0 0 Left 0
WINDOW 39 24 44 Left 2
SYMATTR SpiceLine Rser=1
SYMATTR InstName V3
SYMATTR Value 15
SYMBOL voltage 112 -224 R90
WINDOW 0 -32 56 VBottom 2
WINDOW 3 32 56 VTop 2
WINDOW 123 0 0 Left 0
WINDOW 39 0 0 Left 0
SYMATTR InstName V4
SYMATTR Value 20
SYMBOL OpAmps\\UniversalOpAmp2 128 -224 R270
SYMATTR InstName U1
SYMBOL bv 560 -320 R0
SYMATTR InstName B1
SYMATTR Value V=if(V(x) >15, 010, 0)
SYMBOL voltage 144 -224 R270
WINDOW 0 32 56 VTop 2
WINDOW 3 -32 56 VBottom 2
SYMATTR InstName V5
SYMATTR Value -20
SYMBOL res 560 48 R0
SYMATTR InstName R3
SYMATTR Value 100k
TEXT 40 240 Left 2 !.tran 30u
TEXT 352 -256 Left 2 ;Output
