Version 4
SHEET 1 1124 680
WIRE 144 80 144 48
WIRE 384 80 144 80
WIRE 144 96 144 80
WIRE 384 112 384 80
WIRE 64 144 -16 144
WIRE 304 176 224 176
WIRE 768 176 464 176
WIRE 64 208 -16 208
WIRE 144 304 144 256
WIRE 384 304 384 240
WIRE 384 304 144 304
WIRE 144 336 144 304
FLAG -16 144 a
IOPIN -16 144 In
FLAG 144 48 vdd
IOPIN 144 48 In
FLAG 768 176 y
IOPIN 768 176 Out
FLAG 144 336 vss
IOPIN 144 336 In
FLAG -16 208 b
IOPIN -16 208 In
SYMBOL nand 144 176 R0
SYMATTR InstName X1
SYMBOL not 384 176 R0
SYMATTR InstName X2
