Version 4
SHEET 1 880 868
WIRE 64 -64 0 -64
WIRE 416 -64 64 -64
WIRE 416 48 416 -64
WIRE 480 48 416 48
WIRE 64 64 64 -64
WIRE 128 64 64 64
WIRE 400 96 352 96
WIRE 16 128 -80 128
WIRE 48 128 16 128
WIRE 272 128 208 128
WIRE 352 128 352 96
WIRE 352 128 272 128
WIRE 640 128 544 128
WIRE 400 160 208 160
WIRE 64 240 64 64
WIRE 128 240 64 240
WIRE 416 256 416 48
WIRE 480 256 416 256
WIRE 48 304 -80 304
WIRE 208 304 208 160
WIRE 400 304 208 304
WIRE 640 336 544 336
WIRE 400 368 368 368
WIRE 16 400 16 128
WIRE 368 400 368 368
WIRE 368 400 16 400
WIRE 416 480 416 256
WIRE 480 480 416 480
WIRE 272 528 272 128
WIRE 400 528 272 528
WIRE 640 560 544 560
WIRE 80 592 80 304
WIRE 400 592 80 592
WIRE 416 688 416 480
WIRE 480 688 416 688
WIRE 16 736 16 400
WIRE 400 736 16 736
WIRE 640 768 544 768
WIRE 80 800 80 592
WIRE 400 800 80 800
WIRE 16 816 16 736
FLAG -80 128 a0
IOPIN -80 128 In
FLAG -80 304 a1
IOPIN -80 304 In
FLAG 640 768 y3
IOPIN 640 768 Out
FLAG 640 560 y2
IOPIN 640 560 Out
FLAG 640 336 y1
IOPIN 640 336 Out
FLAG 640 128 y0
IOPIN 640 128 Out
FLAG 128 192 0
FLAG 128 368 0
FLAG 480 208 0
FLAG 480 416 0
FLAG 480 640 0
FLAG 480 848 0
FLAG 0 16 0
SYMBOL not 128 128 R0
SYMATTR InstName X1
SYMBOL not 128 304 R0
SYMATTR InstName X2
SYMBOL and 480 128 R0
SYMATTR InstName X3
SYMBOL and 480 336 R0
SYMATTR InstName X4
SYMBOL and 480 560 R0
SYMATTR InstName X5
SYMBOL and 480 768 R0
SYMATTR InstName X6
SYMBOL voltage 0 -80 R0
WINDOW 123 0 0 Left 0
WINDOW 39 0 0 Left 0
SYMATTR InstName V1
SYMATTR Value 1
