Version 4
SHEET 1 1124 680
WIRE 240 0 240 -48
WIRE 464 0 240 0
WIRE 240 48 240 0
WIRE 464 48 464 0
WIRE 240 96 240 64
WIRE 464 96 464 64
WIRE 80 128 0 128
WIRE 192 128 80 128
WIRE 416 128 400 128
WIRE 240 176 240 144
WIRE 464 176 464 144
WIRE 464 176 240 176
WIRE 592 176 464 176
WIRE 240 224 240 176
WIRE 320 272 240 272
WIRE 80 304 80 128
WIRE 192 304 80 304
WIRE 48 352 0 352
WIRE 400 352 400 128
WIRE 400 352 48 352
WIRE 240 368 240 320
WIRE 48 448 48 352
WIRE 192 448 48 448
WIRE 240 448 240 416
WIRE 240 528 240 464
FLAG 0 128 a
IOPIN 0 128 In
FLAG 240 -48 vdd
IOPIN 240 -48 In
FLAG 592 176 y
IOPIN 592 176 Out
FLAG 240 528 vss
IOPIN 240 528 In
FLAG 0 352 b
IOPIN 0 352 In
FLAG 320 272 vss
IOPIN 320 272 In
SYMBOL pmos4 192 48 R0
SYMATTR InstName M2
SYMATTR Value2 l=1u w=1u
SYMBOL nmos4 192 224 R0
SYMATTR InstName M1
SYMATTR Value2 l=1u w=1u
SYMBOL pmos4 416 48 R0
SYMATTR InstName M3
SYMATTR Value2 l=1u w=1u
SYMBOL nmos4 192 368 R0
SYMATTR InstName M4
SYMATTR Value2 l=1u w=1u
TEXT 368 -96 Left 2 !.model PMOS PMOS(Level=1 Vto=-1V Kp=100u)
TEXT 368 -64 Left 2 !.model NMOS NMOS(Level=1 Vto=1V Kp=100u)
