Version 4
SHEET 1 1124 680
WIRE 240 96 240 64
WIRE 192 128 80 128
WIRE 240 176 240 144
WIRE 304 176 240 176
WIRE 80 192 80 128
WIRE 80 192 48 192
WIRE 240 192 240 176
WIRE 80 272 80 192
WIRE 192 272 80 272
WIRE 240 272 240 240
WIRE 240 352 240 288
FLAG 48 192 a
IOPIN 48 192 In
FLAG 240 48 vdd
IOPIN 240 48 In
FLAG 304 176 y
IOPIN 304 176 Out
FLAG 240 352 vss
IOPIN 240 352 In
SYMBOL pmos4 192 48 R0
SYMATTR InstName M2
SYMATTR Value2 l=1u w=1u
SYMBOL nmos4 192 192 R0
SYMATTR InstName M1
SYMATTR Value2 l=1u w=1u
TEXT 360 48 Left 2 !.model PMOS PMOS(Level=1 Vto=-1V Kp=100u)
TEXT 360 80 Left 2 !.model NMOS NMOS(Level=1 Vto=1V Kp=100u)
